**
** Heading +++++++++++++++++++++++++++++++++++++++++++++++++
**
*Heading
Hash: SSxFU8e7, Date: 05/06/2025, Unit system: MM_TON_S_C
**
** Nodes +++++++++++++++++++++++++++++++++++++++++++++++++++
**
*Node, NSET=Nall
1, 0.00000000E+000, 0.00000000E+000, 0.00000000E+000
2, 0.00000000E+000, 0.00000000E+000, 1.30000000E+001
3, 1.95000000E+001, 0.00000000E+000, 0.00000000E+000
4, 1.95000000E+001, 0.00000000E+000, 1.30000000E+001
5, 1.95000000E+001, 1.40000000E+001, 0.00000000E+000
6, 1.95000000E+001, 1.40000000E+001, 1.30000000E+001
7, 0.00000000E+000, 1.40000000E+001, 0.00000000E+000
8, 0.00000000E+000, 1.40000000E+001, 1.30000000E+001
9, 2.45000000E+001, 0.00000000E+000, 0.00000000E+000
10, 2.45000000E+001, 0.00000000E+000, 1.30000000E+001
11, 2.45000000E+001, 1.40000000E+001, 0.00000000E+000
12, 2.45000000E+001, 1.40000000E+001, 1.30000000E+001
13, 3.27000000E+002, 0.00000000E+000, 0.00000000E+000
14, 3.27000000E+002, 0.00000000E+000, 1.30000000E+001
15, 3.27000000E+002, 1.40000000E+001, 0.00000000E+000
16, 3.27000000E+002, 1.40000000E+001, 1.30000000E+001
17, 1.95000000E+001, 1.90000000E+001, 0.00000000E+000
18, 1.95000000E+001, 1.90000000E+001, 1.30000000E+001
19, 0.00000000E+000, 1.90000000E+001, 0.00000000E+000
20, 0.00000000E+000, 1.90000000E+001, 1.30000000E+001
** ... 11320 like lines cut
**
** Elements ++++++++++++++++++++++++++++++++++++++++++++++++
**
*Element, Type=C3D8, Elset=Solid_part-36
1, 1, 79, 1530, 80, 89, 1533, 9007, 1534
2, 89, 1533, 9007, 1534, 7, 87, 1532, 86
3, 80, 1530, 81, 3, 1534, 9007, 1531, 83
4, 1534, 9007, 1531, 83, 86, 1532, 84, 5
5, 79, 2, 82, 1530, 1533, 90, 1535, 9007
6, 1533, 90, 1535, 9007, 87, 8, 88, 1532
7, 1530, 82, 4, 81, 9007, 1535, 85, 1531
8, 9007, 1535, 85, 1531, 1532, 88, 6, 84
9, 3, 81, 91, 9, 83, 1531, 1536, 92
10, 83, 1531, 1536, 92, 5, 84, 93, 11
11, 81, 4, 10, 91, 1531, 85, 94, 1536
12, 1531, 85, 94, 1536, 84, 6, 12, 93
13, 9, 91, 1537, 95, 92, 1536, 9008, 1598
14, 92, 1536, 9008, 1598, 11, 93, 1597, 188
15, 95, 1537, 1538, 96, 1598, 9008, 9009, 1599
16, 1598, 9008, 9009, 1599, 188, 1597, 1596, 187
17, 96, 1538, 1539, 97, 1599, 9009, 9010, 1600
18, 1599, 9009, 9010, 1600, 187, 1596, 1595, 186
19, 97, 1539, 1540, 98, 1600, 9010, 9011, 1601
20, 1600, 9010, 9011, 1601, 186, 1595, 1594, 185
** ... 8203 like lines cut
**
** Node sets +++++++++++++++++++++++++++++++++++++++++++++++
**
*Nset, Nset=Internal_Selection-1_Displacement_Rotation-1
21, 22, 23, 24, 29, 30, 31, 32, 43, 44, 47, 48, 59, 60, 63, 74, 
75, 78, 243, 264, 265, 266, 389, 430, 451, 452, 453, 454, 455, 456, 457, 458, 
459, 460, 461, 462, 463, 464, 465, 466, 467, 468, 469, 470, 471, 472, 473, 474, 
475, 476, 477, 478, 479, 480, 481, 482, 483, 484, 485, 486, 487, 488, 489, 490, 
491, 492, 493, 494, 495, 496, 497, 498, 499, 500, 501, 502, 503, 504, 505, 506, 
507, 508, 509, 510, 598, 689, 690, 691, 692, 693, 694, 695, 696, 697, 698, 699, 
700, 701, 702, 703, 704, 705, 706, 707, 708, 709, 710, 711, 712, 713, 714, 715, 
716, 717, 718, 1106, 1107, 1108, 1109, 1110, 1111, 1112, 1113, 1114, 1115, 1116, 1117, 1118, 
1119, 1120, 1121, 1122, 1123, 1124, 1125, 1126, 1127, 1128, 1129, 1130, 1131, 1132, 1133, 1134, 
1135, 1136, 1137, 1158, 1159, 1160, 1161, 1162, 1163, 1164, 1165, 1166, 1167, 1168, 1169, 1170, 
1171, 1172, 1173, 1174, 1175, 1176, 1177, 1178, 1179, 1180, 1181, 1182, 1183, 1184, 1185, 1186, 
1187, 1188, 1189, 1190, 1305, 1306, 1307, 1308, 1309, 1310, 1311, 1312, 1313, 1314, 1315, 1316, 
1317, 1318, 1319, 1320, 1321, 1322, 1323, 1324, 1325, 1326, 1327, 1328, 1329, 1330, 1331, 1332, 
1333, 1334, 1335, 1336, 1434, 1455, 1456, 1509, 1679, 1810, 1811, 1812, 1813, 1814, 1815, 1816, 
1817, 1818, 1819, 1820, 1821, 1822, 1823, 1824, 1825, 1826, 1827, 1828, 1829, 1830, 1831, 1832, 
1833, 1834, 1835, 1836, 1837, 1838, 1839, 6506, 6507, 6508, 6509, 6510, 6511, 6512, 6513, 6514, 
6515, 6516, 6517, 6518, 6519, 6520, 6521, 6522, 6523, 6524, 6525, 6526, 6527, 6528, 6529, 6530, 
6531, 6532, 6533, 6534, 6535, 6536, 6537, 8916
*Nset, Nset=Internal_Selection-1_Displacement_Rotation-2
13, 14, 15, 16, 27, 28, 31, 32, 39, 40, 46, 48, 55, 56, 62, 70, 
71, 77, 125, 156, 157, 158, 308, 410, 411, 412, 413, 414, 415, 416, 417, 418, 
419, 420, 421, 422, 423, 424, 425, 426, 427, 428, 429, 430, 431, 432, 433, 434, 
435, 436, 437, 438, 439, 440, 441, 442, 443, 444, 445, 446, 447, 448, 449, 450, 
546, 669, 670, 671, 672, 673, 674, 675, 676, 677, 678, 679, 680, 681, 682, 683, 
684, 685, 686, 687, 688, 916, 917, 918, 919, 920, 921, 922, 923, 924, 925, 926, 
927, 928, 929, 930, 931, 932, 933, 934, 935, 936, 937, 938, 939, 940, 941, 942, 
943, 944, 945, 946, 947, 978, 979, 980, 981, 982, 983, 984, 985, 986, 987, 988, 
989, 990, 991, 992, 993, 994, 995, 996, 997, 998, 999, 1000, 1001, 1002, 1003, 1004, 
1005, 1006, 1007, 1008, 1009, 1010, 1243, 1244, 1245, 1246, 1247, 1248, 1249, 1250, 1251, 1252, 
1253, 1254, 1255, 1256, 1257, 1258, 1259, 1260, 1261, 1262, 1263, 1264, 1265, 1266, 1267, 1268, 
1269, 1270, 1271, 1272, 1273, 1274, 1368, 1399, 1400, 1478, 1567, 1790, 1791, 1792, 1793, 1794, 
1795, 1796, 1797, 1798, 1799, 1800, 1801, 1802, 1803, 1804, 1805, 1806, 1807, 1808, 1809, 4812, 
4813, 4814, 4815, 4816, 4817, 4818, 4819, 4820, 4821, 4822, 4823, 4824, 4825, 4826, 4827, 4828, 
4829, 4830, 4831, 4832, 4833, 4834, 4835, 4836, 4837, 4838, 4839, 4840, 4841, 4842, 4843, 8834
*Nset, Nset=Internal_Selection-1_Concentrated_Force-1
49, 64, 1357
*Nset, Nset=Internal_Selection-1_Concentrated_Force-2
64, 65, 1359
*Nset, Nset=Internal_Selection-1_Concentrated_Force-3
64, 67, 1364
*Nset, Nset=Internal_Selection-1_Concentrated_Force-4
1, 2, 79
*Nset, Nset=Internal_Selection-1_Concentrated_Force-5
1, 7, 89
*Nset, Nset=Internal_Selection-1_Concentrated_Force-6
1, 3, 80
*Nset, Nset=Internal_Selection-1_TopLoad-1
64, 65, 66, 67, 68, 69, 70, 71, 72, 73, 74, 75, 76, 77, 78, 1359, 
1361, 1363, 1364, 1367, 1369, 1370, 1371, 1372, 1373, 1374, 1375, 1376, 1377, 1378, 1379, 1380, 
1381, 1382, 1383, 1384, 1385, 1386, 1387, 1388, 1389, 1390, 1391, 1392, 1393, 1394, 1395, 1396, 
1397, 1398, 1400, 1401, 1402, 1403, 1404, 1405, 1406, 1407, 1408, 1409, 1410, 1411, 1412, 1413, 
1414, 1415, 1416, 1417, 1418, 1419, 1420, 1421, 1422, 1423, 1424, 1425, 1426, 1427, 1428, 1429, 
1430, 1433, 1435, 1436, 1437, 1438, 1439, 1440, 1441, 1442, 1443, 1444, 1445, 1446, 1447, 1448, 
1449, 1450, 1451, 1452, 1453, 1454, 1456, 1457, 1458, 1459, 1460, 1461, 1462, 1463, 1464, 1465, 
1466, 1467, 1468, 1469, 1470, 1471, 1472, 1473, 1474, 1475, 1476, 1479, 1480, 1481, 1482, 1483, 
1484, 1485, 1486, 1487, 1488, 1489, 1490, 1491, 1492, 1493, 1494, 1495, 1496, 1497, 1498, 1499, 
1500, 1501, 1502, 1503, 1504, 1505, 1506, 1507, 1508, 1510, 1511, 1512, 1513, 1514, 1515, 1516, 
1517, 1518, 1519, 1520, 1521, 1522, 1523, 1524, 1525, 1526, 1527, 1528, 1529, 8802, 8865, 8866, 
8867, 8868, 8869, 8870, 8871, 8872, 8873, 8874, 8875, 8876, 8877, 8878, 8879, 8880, 8881, 8882, 
8883, 8884, 8885, 8886, 8887, 8888, 8889, 8890, 8891, 8892, 8893, 8894, 8937, 8938, 8939, 8940, 
8941, 8942, 8943, 8944, 8945, 8946, 8947, 8948, 8949, 8950, 8951, 8952, 8953, 8954, 8955, 8956
*Nset, Nset=Internal_Selection-1_BotLoad-1
1, 3, 5, 7, 9, 11, 13, 15, 17, 19, 21, 23, 25, 27, 29, 80, 
83, 86, 89, 92, 95, 96, 97, 98, 99, 100, 101, 102, 103, 104, 105, 106, 
107, 108, 109, 110, 111, 112, 113, 114, 115, 116, 117, 118, 119, 120, 121, 122, 
123, 124, 156, 159, 160, 161, 162, 163, 164, 165, 166, 167, 168, 169, 170, 171, 
172, 173, 174, 175, 176, 177, 178, 179, 180, 181, 182, 183, 184, 185, 186, 187, 
188, 220, 223, 224, 225, 226, 227, 228, 229, 230, 231, 232, 233, 234, 235, 236, 
237, 238, 239, 240, 241, 242, 264, 267, 268, 269, 270, 271, 272, 273, 274, 275, 
276, 277, 278, 279, 280, 281, 282, 283, 284, 285, 286, 309, 310, 311, 312, 313, 
314, 315, 316, 317, 318, 319, 320, 321, 322, 323, 324, 325, 326, 327, 328, 329, 
330, 331, 332, 333, 334, 335, 336, 337, 338, 369, 370, 371, 372, 373, 374, 375, 
376, 377, 378, 379, 380, 381, 382, 383, 384, 385, 386, 387, 388, 1534, 1598, 1599, 
1600, 1601, 1602, 1603, 1604, 1605, 1606, 1607, 1608, 1609, 1610, 1611, 1612, 1613, 1614, 1615, 
1616, 1617, 1618, 1619, 1620, 1621, 1622, 1623, 1624, 1625, 1626, 1627, 1700, 1701, 1702, 1703, 
1704, 1705, 1706, 1707, 1708, 1709, 1710, 1711, 1712, 1713, 1714, 1715, 1716, 1717, 1718, 1719
*Nset, Nset=Internal_Selection-1_Bottom_press-1
45, 46, 47, 48, 619, 620, 621, 622, 623, 624, 625, 626, 627, 628, 629, 630, 
631, 632, 633, 634, 635, 636, 637, 638, 639, 640, 641, 642, 643, 644, 645, 646, 
647, 648, 649, 650, 651, 652, 653, 654, 655, 656, 657, 658, 659, 660, 661, 662, 
663, 664, 665, 666, 667, 668, 669, 670, 671, 672, 673, 674, 675, 676, 677, 678, 
679, 680, 681, 682, 683, 684, 685, 686, 687, 688, 689, 690, 691, 692, 693, 694, 
695, 696, 697, 698, 699, 700, 701, 702, 703, 704, 705, 706, 707, 708, 709, 710, 
711, 712, 713, 714, 715, 716, 717, 718, 3091, 3092, 3093, 3094, 3095, 3096, 3097, 3098, 
3099, 3100, 3101, 3102, 3103, 3104, 3105, 3106, 3107, 3108, 3109, 3110, 3111, 3112, 3113, 3114, 
3115, 3116, 3117, 3118, 3119, 3120, 3121, 3122, 3123, 3124, 3125, 3126, 3127, 3128, 3129, 3130, 
3131, 3132, 3133, 3134, 3135, 3136, 3137, 3138, 3139, 3140, 3141, 3142, 3143, 3144, 3145, 3146, 
3147, 3148, 3149, 3150, 3151, 3152, 3153, 3154, 3155, 3156, 3157, 3158, 3159, 3160, 3161, 3162, 
3163, 3164, 3165, 3166, 3167, 3168, 3169, 3170, 3171, 3172, 3173, 3174, 3175, 3176, 3177, 3178, 
3179, 3180, 3181, 3182, 3183, 3184, 3185, 3186, 3187, 3188, 3189, 3190, 3191, 3192, 3193, 3194, 
3195, 3196, 3197, 3198, 3199, 3200, 3201, 3202, 3203, 3204, 3205, 3206, 3207, 3208, 3209, 3210, 
3211, 3212, 3213, 3214, 3215, 3216, 3217, 3218, 3219, 3220, 3221, 3222, 3223, 3224, 3225, 3226, 
3227, 3228, 3229, 3230, 3231, 3232, 3233, 3234, 3235, 3236, 3237, 3238, 3239, 3240, 3241, 3242, 
3243, 3244, 3245, 3246, 3247, 3248, 3249, 3250, 3251, 3252, 3253, 3254, 3255, 3256, 3257, 3258, 
3259, 3260, 3261, 3262, 3263, 3264, 3265, 3266, 3267, 3268, 3269, 3270, 3271, 3272, 3273, 3274, 
3275, 3276, 3277, 3278, 3279, 3280, 3281, 3282, 3283, 3284, 3285, 3286, 3287, 3288, 3289, 3290, 
3291, 3292, 3293, 3294, 3295, 3296, 3297, 3298, 3299, 3300, 3301, 3302, 3303, 3304, 3305, 3306, 
** ... 24 like lines cut
*Nset, Nset=Internal_Selection-1_InsidePres-1
45, 46, 61, 62, 619, 620, 621, 622, 623, 624, 625, 626, 627, 628, 629, 630, 
631, 632, 633, 634, 635, 636, 637, 638, 639, 640, 641, 642, 643, 644, 645, 646, 
647, 648, 1211, 1212, 1213, 1214, 1215, 1216, 1217, 1218, 1219, 1220, 1221, 1222, 1223, 1224, 
1225, 1226, 1227, 1228, 1229, 1230, 1231, 1232, 1233, 1234, 1235, 1236, 1237, 1238, 1239, 1240, 
1241, 1242, 1243, 1244, 1245, 1246, 1247, 1248, 1249, 1250, 1251, 1252, 1253, 1254, 1255, 1256, 
1257, 1258, 1259, 1260, 1261, 1262, 1263, 1264, 1265, 1266, 1267, 1268, 1269, 1270, 1271, 1272, 
1273, 1274, 1275, 1276, 1277, 1278, 1279, 1280, 1281, 1282, 1283, 1284, 1285, 1286, 1287, 1288, 
1289, 1290, 1291, 1292, 1293, 1294, 1295, 1296, 1297, 1298, 1299, 1300, 1301, 1302, 1303, 1304, 
7198, 7199, 7200, 7201, 7202, 7203, 7204, 7205, 7206, 7207, 7208, 7209, 7210, 7211, 7212, 7213, 
7214, 7215, 7216, 7217, 7218, 7219, 7220, 7221, 7222, 7223, 7224, 7225, 7226, 7227, 7228, 7229, 
7230, 7231, 7232, 7233, 7234, 7235, 7236, 7237, 7238, 7239, 7240, 7241, 7242, 7243, 7244, 7245, 
7246, 7247, 7248, 7249, 7250, 7251, 7252, 7253, 7254, 7255, 7256, 7257, 7258, 7259, 7260, 7261, 
7262, 7263, 7264, 7265, 7266, 7267, 7268, 7269, 7270, 7271, 7272, 7273, 7274, 7275, 7276, 7277, 
7278, 7279, 7280, 7281, 7282, 7283, 7284, 7285, 7286, 7287, 7288, 7289, 7290, 7291, 7292, 7293, 
7294, 7295, 7296, 7297, 7298, 7299, 7300, 7301, 7302, 7303, 7304, 7305, 7306, 7307, 7308, 7309, 
7310, 7311, 7312, 7313, 7314, 7315, 7316, 7317, 7318, 7319, 7320, 7321, 7322, 7323, 7324, 7325, 
7326, 7327, 7328, 7329, 7330, 7331, 7332, 7333, 7334, 7335, 7336, 7337, 7338, 7339, 7340, 7341, 
7342, 7343, 7344, 7345, 7346, 7347, 7348, 7349, 7350, 7351, 7352, 7353, 7354, 7355, 7356, 7357, 
7358, 7359, 7360, 7361, 7362, 7363, 7364, 7365, 7366, 7367, 7368, 7369, 7370, 7371, 7372, 7373, 
7374, 7375, 7376, 7377, 7378, 7379, 7380, 7381, 7382, 7383, 7384, 7385, 7386, 7387, 7388, 7389, 
** ... 48 like lines cut
*Nset, Nset=Internal_Selection-2_Concentrated_Force-1
45, 47, 61, 63, 649, 650, 651, 652, 653, 654, 655, 656, 657, 658, 659, 660, 
661, 662, 663, 664, 665, 666, 667, 668, 1211, 1212, 1213, 1214, 1215, 1216, 1217, 1218, 
1219, 1220, 1221, 1222, 1223, 1224, 1225, 1226, 1227, 1228, 1229, 1230, 1231, 1232, 1233, 1234, 
1235, 1236, 1237, 1238, 1239, 1240, 1241, 1242, 1305, 1306, 1307, 1308, 1309, 1310, 1311, 1312, 
1313, 1314, 1315, 1316, 1317, 1318, 1319, 1320, 1321, 1322, 1323, 1324, 1325, 1326, 1327, 1328, 
1329, 1330, 1331, 1332, 1333, 1334, 1335, 1336, 1337, 1338, 1339, 1340, 1341, 1342, 1343, 1344, 
1345, 1346, 1347, 1348, 1349, 1350, 1351, 1352, 1353, 1354, 1355, 1356, 8158, 8159, 8160, 8161, 
8162, 8163, 8164, 8165, 8166, 8167, 8168, 8169, 8170, 8171, 8172, 8173, 8174, 8175, 8176, 8177, 
8178, 8179, 8180, 8181, 8182, 8183, 8184, 8185, 8186, 8187, 8188, 8189, 8190, 8191, 8192, 8193, 
8194, 8195, 8196, 8197, 8198, 8199, 8200, 8201, 8202, 8203, 8204, 8205, 8206, 8207, 8208, 8209, 
8210, 8211, 8212, 8213, 8214, 8215, 8216, 8217, 8218, 8219, 8220, 8221, 8222, 8223, 8224, 8225, 
8226, 8227, 8228, 8229, 8230, 8231, 8232, 8233, 8234, 8235, 8236, 8237, 8238, 8239, 8240, 8241, 
8242, 8243, 8244, 8245, 8246, 8247, 8248, 8249, 8250, 8251, 8252, 8253, 8254, 8255, 8256, 8257, 
8258, 8259, 8260, 8261, 8262, 8263, 8264, 8265, 8266, 8267, 8268, 8269, 8270, 8271, 8272, 8273, 
8274, 8275, 8276, 8277, 8278, 8279, 8280, 8281, 8282, 8283, 8284, 8285, 8286, 8287, 8288, 8289, 
8290, 8291, 8292, 8293, 8294, 8295, 8296, 8297, 8298, 8299, 8300, 8301, 8302, 8303, 8304, 8305, 
8306, 8307, 8308, 8309, 8310, 8311, 8312, 8313, 8314, 8315, 8316, 8317, 8318, 8319, 8320, 8321, 
8322, 8323, 8324, 8325, 8326, 8327, 8328, 8329, 8330, 8331, 8332, 8333, 8334, 8335, 8336, 8337, 
8338, 8339, 8340, 8341, 8342, 8343, 8344, 8345, 8346, 8347, 8348, 8349, 8350, 8351, 8352, 8353, 
8354, 8355, 8356, 8357, 8358, 8359, 8360, 8361, 8362, 8363, 8364, 8365, 8366, 8367, 8368, 8369, 
** ... 27 like lines cut
*Nset, Nset=Internal_Selection-1_Displacement_Rotation-3
1, 3, 5, 7, 9, 11, 13, 15, 17, 19, 21, 23, 80, 83, 86, 89, 
92, 95, 96, 97, 98, 99, 100, 101, 102, 103, 104, 105, 106, 107, 108, 109, 
110, 111, 112, 113, 114, 115, 116, 117, 118, 119, 120, 121, 122, 123, 124, 156, 
159, 160, 161, 162, 163, 164, 165, 166, 167, 168, 169, 170, 171, 172, 173, 174, 
175, 176, 177, 178, 179, 180, 181, 182, 183, 184, 185, 186, 187, 188, 220, 223, 
224, 225, 226, 227, 228, 229, 230, 231, 232, 233, 234, 235, 236, 237, 238, 239, 
240, 241, 242, 264, 267, 268, 269, 270, 271, 272, 273, 274, 275, 276, 277, 278, 
279, 280, 281, 282, 283, 284, 285, 286, 1534, 1598, 1599, 1600, 1601, 1602, 1603, 1604, 
1605, 1606, 1607, 1608, 1609, 1610, 1611, 1612, 1613, 1614, 1615, 1616, 1617, 1618, 1619, 1620, 
1621, 1622, 1623, 1624, 1625, 1626, 1627, 1700, 1701, 1702, 1703, 1704, 1705, 1706, 1707, 1708, 
1709, 1710, 1711, 1712, 1713, 1714, 1715, 1716, 1717, 1718, 1719
**
** Element sets ++++++++++++++++++++++++++++++++++++++++++++
**
*Elset, Elset=Black
1, 2, 3, 4, 5, 6, 7, 8, 1633, 1634, 1635, 1636, 1745, 1746, 1747, 1748, 
1749, 1750, 1751, 1752, 1753, 1754, 1755, 1756, 1757, 1758, 1759, 1760, 1761, 1762, 1763, 1764, 
1765, 1766, 1767, 1768, 1769, 1770, 1771, 1772, 1773, 1774, 1775, 1776, 1777, 1778, 1779, 1780, 
1781, 1782, 1783, 1784, 1785, 1786, 1787, 1788, 1789, 1790, 1791, 1792, 1793, 1794, 1795, 1796, 
1797, 1798, 1799, 1800, 1801, 1802, 1803, 1804, 1805, 1806, 1807, 1808, 1809, 1810, 1811, 1812, 
1813, 1814, 1815, 1816, 1817, 1818, 1819, 1820, 1821, 1822, 1823, 1824, 1825, 1826, 1827, 1828, 
1829, 1830, 1831, 1832, 1833, 1834, 1835, 1836, 1837, 1838, 1839, 1840, 1841, 1842, 1843, 1844, 
1845, 1846, 1847, 1848, 1849, 1850, 1851, 1852, 1853, 1854, 1855, 1856, 1857, 1858, 1859, 1860, 
1861, 1862, 1863, 1864, 1865, 1866, 1867, 1868, 1869, 1870, 1871, 1872, 1873, 1874, 1875, 1876, 
1877, 1878, 1879, 1880, 1881, 1882, 1883, 1884, 1885, 1886, 1887, 1888, 1889, 1890, 1891, 1892, 
1893, 1894, 1895, 1896, 1897, 1898, 1899, 1900, 1901, 1902, 1903, 1904, 1905, 1906, 1907, 1908, 
1909, 1910, 1911, 1912, 1913, 1914, 1915, 1916, 1917, 1918, 1919, 1920, 1921, 1922, 1923, 1924, 
1925, 1926, 1927, 1928, 1929, 1930, 1931, 1932, 1933, 1934, 1935, 1936, 1937, 1938, 1939, 1940, 
1941, 1942, 1943, 1944, 1945, 1946, 1947, 1948, 1949, 1950, 1951, 1952, 1953, 1954, 1955, 1956, 
1957, 1958, 1959, 1960, 1961, 1962, 1963, 1964, 1965, 1966, 1967, 1968, 1969, 1970, 1971, 1972, 
1973, 1974, 1975, 1976, 1977, 1978, 1979, 1980, 1981, 1982, 1983, 1984, 1985, 1986, 1987, 1988, 
1989, 1990, 1991, 1992, 1993, 1994, 1995, 1996, 1997, 1998, 1999, 2000, 2001, 2002, 2003, 2004, 
2005, 2006, 2007, 2008, 2009, 2010, 2011, 2012, 2013, 2014, 2015, 2016, 2017, 2018, 2019, 2020, 
2021, 2022, 2023, 2024, 2025, 2026, 2027, 2028, 2029, 2030, 2031, 2032, 2033, 2034, 2035, 2036, 
2037, 2038, 2039, 2040, 2041, 2042, 2043, 2044, 2045, 2046, 2047, 2048, 2049, 2050, 2051, 2052, 
** ... 150 like lines cut
*Elset, Elset=Internal_Selection-1_Solid_Section-1
Solid_part-36, 
Solid_part-37, 
Solid_part-38, 
Solid_part-39, 
Solid_part-40, 
Solid_part-41, 
Solid_part-42, 
Solid_part-43, 
Solid_part-44, 
Solid_part-45, 
Solid_part-46, 
Solid_part-47, 
Solid_part-48, 
Solid_part-49, 
Solid_part-50, 
Solid_part-51, 
Solid_part-52, 
Solid_part-53, 
Solid_part-54, 
Solid_part-55, 
** ... 14 like lines cut
**
** Surfaces ++++++++++++++++++++++++++++++++++++++++++++++++
**
**
** Physical constants ++++++++++++++++++++++++++++++++++++++
**
**
** Materials +++++++++++++++++++++++++++++++++++++++++++++++
**
*Material, Name=GeoPolymer-1
*Elastic
20000, 0.2
**
** Sections ++++++++++++++++++++++++++++++++++++++++++++++++
**
*Solid section, Elset=Internal_Selection-1_Solid_Section-1, Material=GeoPolymer-1
**
** Pre-tension sections ++++++++++++++++++++++++++++++++++++
**
**
** Constraints +++++++++++++++++++++++++++++++++++++++++++++
**
**
** Surface interactions ++++++++++++++++++++++++++++++++++++
**
**
** Contact pairs +++++++++++++++++++++++++++++++++++++++++++
**
**
** Amplitudes ++++++++++++++++++++++++++++++++++++++++++++++
**
**
** Initial conditions ++++++++++++++++++++++++++++++++++++++
**
**
** Steps +++++++++++++++++++++++++++++++++++++++++++++++++++
**
**
** Step-1 ++++++++++++++++++++++++++++++++++++++++++++++++++
**
*Step
*Static
**
** Output frequency ++++++++++++++++++++++++++++++++++++++++
**
*Output, Frequency=1
**
** Boundary conditions +++++++++++++++++++++++++++++++++++++
**
*Boundary, op=New
** Name: Displacement_Rotation-1
*Boundary
Internal_Selection-1_Displacement_Rotation-1, 2, 2, 0
Internal_Selection-1_Displacement_Rotation-1, 4, 4, 0
Internal_Selection-1_Displacement_Rotation-1, 6, 6, 0
** Name: Displacement_Rotation-2
*Boundary
Internal_Selection-1_Displacement_Rotation-2, 1, 1, 0
Internal_Selection-1_Displacement_Rotation-2, 5, 5, 0
Internal_Selection-1_Displacement_Rotation-2, 6, 6, 0
** Name: Displacement_Rotation-3
*Boundary, Fixed
Internal_Selection-1_Displacement_Rotation-3, 3, 3
**
** Loads +++++++++++++++++++++++++++++++++++++++++++++++++++
**
*Cload, op=New
*Dload, op=New
** Name: Pretension-1
*Cload
49, 1, 117
64, 1, 117
1357, 1, 117
49, 2, 117
64, 2, 117
1357, 2, 117
** Name: Pretension-2
*Cload
64, 2, 117
65, 2, 117
1359, 2, 117
64, 3, -117
65, 3, -117
1359, 3, -117
** Name: Pretension-3
*Cload
64, 1, 117
67, 1, 117
1364, 1, 117
64, 3, -117
67, 3, -117
1364, 3, -117
** Name: Pretension-4
*Cload
1, 1, 117
2, 1, 117
79, 1, 117
1, 2, 117
2, 2, 117
79, 2, 117
** Name: Pretension-5
*Cload
1, 1, 117
7, 1, 117
89, 1, 117
1, 3, 117
7, 3, 117
89, 3, 117
** Name: Pretension-6
*Cload
1, 2, 117
3, 2, 117
80, 2, 117
1, 3, 117
3, 3, 117
80, 3, 117
** Name: TopLoad-1
*Cload
64, 3, -7.81
65, 3, -7.81
66, 3, -7.81
67, 3, -7.81
68, 3, -7.81
69, 3, -7.81
70, 3, -7.81
71, 3, -7.81
72, 3, -7.81
73, 3, -7.81
74, 3, -7.81
75, 3, -7.81
76, 3, -7.81
77, 3, -7.81
78, 3, -7.81
1359, 3, -7.81
1361, 3, -7.81
1363, 3, -7.81
1364, 3, -7.81
1367, 3, -7.81
** ... 204 like lines cut
**
** Defined fields ++++++++++++++++++++++++++++++++++++++++++
**
**
** History outputs +++++++++++++++++++++++++++++++++++++++++
**
**
** Field outputs +++++++++++++++++++++++++++++++++++++++++++
**
*Node file
RF, U
*El file
S, E, NOE
**
** End step ++++++++++++++++++++++++++++++++++++++++++++++++
**
*End step
