**
** Heading +++++++++++++++++++++++++++++++++++++++++++++++++
**
*Heading
Hash: IwuhBYBO, Date: 04/29/2025, Unit system: MM_TON_S_C
**
** Nodes +++++++++++++++++++++++++++++++++++++++++++++++++++
**
*Node, NSET=Nall
1, 0.00000000E+000, 0.00000000E+000
2, 5.00000000E+000, 0.00000000E+000
3, 1.00000000E+001, 0.00000000E+000
4, 1.50000000E+001, 0.00000000E+000
5, 2.00000000E+001, 0.00000000E+000
6, 2.50000000E+001, 0.00000000E+000
7, 3.00000000E+001, 0.00000000E+000
8, 3.50000000E+001, 0.00000000E+000
9, 4.00000000E+001, 0.00000000E+000
10, 4.50000000E+001, 0.00000000E+000
11, 5.00000000E+001, 0.00000000E+000
12, 5.50000000E+001, 0.00000000E+000
13, 6.00000000E+001, 0.00000000E+000
14, 6.50000000E+001, 0.00000000E+000
15, 7.00000000E+001, 0.00000000E+000
16, 7.50000000E+001, 0.00000000E+000
17, 8.00000000E+001, 0.00000000E+000
18, 8.50000000E+001, 0.00000000E+000
19, 9.00000000E+001, 0.00000000E+000
20, 9.50000000E+001, 0.00000000E+000
** ... 431 like lines cut
**
** Elements ++++++++++++++++++++++++++++++++++++++++++++++++
**
*Element, Type=CPS4, Elset=Shell_part-1
1, 1, 2, 43, 42
2, 2, 3, 44, 43
3, 3, 4, 45, 44
4, 4, 5, 46, 45
5, 5, 6, 47, 46
6, 6, 7, 48, 47
7, 7, 8, 49, 48
8, 8, 9, 50, 49
9, 9, 10, 51, 50
10, 10, 11, 52, 51
11, 11, 12, 53, 52
12, 12, 13, 54, 53
13, 13, 14, 55, 54
14, 14, 15, 56, 55
15, 15, 16, 57, 56
16, 16, 17, 58, 57
17, 17, 18, 59, 58
18, 18, 19, 60, 59
19, 19, 20, 61, 60
20, 20, 21, 62, 61
** ... 380 like lines cut
**
** Node sets +++++++++++++++++++++++++++++++++++++++++++++++
**
*Nset, Nset=roller_support
1
*Nset, Nset=fixed_support
41
*Nset, Nset=Internal_Selection-1_Concentrated_Force-1
1
*Nset, Nset=Internal_Selection-1_Displacement_Rotation-1
41
*Nset, Nset=Internal_Selection-1_YSymm
1, 42, 83, 124, 165, 206, 247, 288, 329, 370, 411
**
** Element sets ++++++++++++++++++++++++++++++++++++++++++++
**
*Elset, Elset=EALL
1, 2, 3, 4, 5, 6, 7, 8, 9, 10, 11, 12, 13, 14, 15, 16, 
17, 18, 19, 20, 21, 22, 23, 24, 25, 26, 27, 28, 29, 30, 31, 32, 
33, 34, 35, 36, 37, 38, 39, 40, 41, 42, 43, 44, 45, 46, 47, 48, 
49, 50, 51, 52, 53, 54, 55, 56, 57, 58, 59, 60, 61, 62, 63, 64, 
65, 66, 67, 68, 69, 70, 71, 72, 73, 74, 75, 76, 77, 78, 79, 80, 
81, 82, 83, 84, 85, 86, 87, 88, 89, 90, 91, 92, 93, 94, 95, 96, 
97, 98, 99, 100, 101, 102, 103, 104, 105, 106, 107, 108, 109, 110, 111, 112, 
113, 114, 115, 116, 117, 118, 119, 120, 121, 122, 123, 124, 125, 126, 127, 128, 
129, 130, 131, 132, 133, 134, 135, 136, 137, 138, 139, 140, 141, 142, 143, 144, 
145, 146, 147, 148, 149, 150, 151, 152, 153, 154, 155, 156, 157, 158, 159, 160, 
161, 162, 163, 164, 165, 166, 167, 168, 169, 170, 171, 172, 173, 174, 175, 176, 
177, 178, 179, 180, 181, 182, 183, 184, 185, 186, 187, 188, 189, 190, 191, 192, 
193, 194, 195, 196, 197, 198, 199, 200, 201, 202, 203, 204, 205, 206, 207, 208, 
209, 210, 211, 212, 213, 214, 215, 216, 217, 218, 219, 220, 221, 222, 223, 224, 
225, 226, 227, 228, 229, 230, 231, 232, 233, 234, 235, 236, 237, 238, 239, 240, 
241, 242, 243, 244, 245, 246, 247, 248, 249, 250, 251, 252, 253, 254, 255, 256, 
257, 258, 259, 260, 261, 262, 263, 264, 265, 266, 267, 268, 269, 270, 271, 272, 
273, 274, 275, 276, 277, 278, 279, 280, 281, 282, 283, 284, 285, 286, 287, 288, 
289, 290, 291, 292, 293, 294, 295, 296, 297, 298, 299, 300, 301, 302, 303, 304, 
305, 306, 307, 308, 309, 310, 311, 312, 313, 314, 315, 316, 317, 318, 319, 320, 
** ... 5 like lines cut
*Elset, Elset=Internal_Selection-1_Solid_Section-1
Shell_part-1
**
** Surfaces ++++++++++++++++++++++++++++++++++++++++++++++++
**
**
** Physical constants ++++++++++++++++++++++++++++++++++++++
**
**
** Materials +++++++++++++++++++++++++++++++++++++++++++++++
**
*Material, Name=Steel
*Elastic
42000, 0.2
**
** Sections ++++++++++++++++++++++++++++++++++++++++++++++++
**
*Solid section, Elset=Internal_Selection-1_Solid_Section-1, Material=Steel
1
**
** Pre-tension sections ++++++++++++++++++++++++++++++++++++
**
**
** Constraints +++++++++++++++++++++++++++++++++++++++++++++
**
**
** Surface interactions ++++++++++++++++++++++++++++++++++++
**
**
** Contact pairs +++++++++++++++++++++++++++++++++++++++++++
**
**
** Amplitudes ++++++++++++++++++++++++++++++++++++++++++++++
**
**
** Initial conditions ++++++++++++++++++++++++++++++++++++++
**
**
** Steps +++++++++++++++++++++++++++++++++++++++++++++++++++
**
**
** Step-1 ++++++++++++++++++++++++++++++++++++++++++++++++++
**
*Step
*Static
**
** Output frequency ++++++++++++++++++++++++++++++++++++++++
**
*Output, Frequency=1
**
** Boundary conditions +++++++++++++++++++++++++++++++++++++
**
*Boundary, op=New
** Name: Displacement_Rotation-1
*Boundary, Fixed
Internal_Selection-1_Displacement_Rotation-1, 2, 2
** Name: YSymm
*Boundary, Fixed
Internal_Selection-1_YSymm, 1, 1
**
** Loads +++++++++++++++++++++++++++++++++++++++++++++++++++
**
** Name: Concentrated_Force-1
*Cload
1, 2, -50
**
** Defined fields ++++++++++++++++++++++++++++++++++++++++++
**
**
** History outputs +++++++++++++++++++++++++++++++++++++++++
**
**
** Field outputs +++++++++++++++++++++++++++++++++++++++++++
**
*Node file
RF, U
*El file
S, E, NOE
**
** End step ++++++++++++++++++++++++++++++++++++++++++++++++
**
*End step
