**
** Heading +++++++++++++++++++++++++++++++++++++++++++++++++
**
*Heading
Hash: ir3KUErs, Date: 04/30/2025, Unit system: MM_TON_S_C
**
** Nodes +++++++++++++++++++++++++++++++++++++++++++++++++++
**
*Node, NSET=Nall
1, 8.74439316E+001, 0.00000000E+000, 0.00000000E+000
2, 8.74439316E+001, 0.00000000E+000, 3.00000000E+001
3, 8.74439316E+001, 4.14043264E+001, 0.00000000E+000
4, 8.74439316E+001, 4.14043264E+001, 3.00000000E+001
5, 1.14570885E+002, 4.14043264E+001, 0.00000000E+000
6, 1.14570885E+002, 4.14043264E+001, 3.00000000E+001
7, 1.14570885E+002, 0.00000000E+000, 3.00000000E+001
8, 1.14570885E+002, 0.00000000E+000, 0.00000000E+000
9, 2.00000000E+002, 0.00000000E+000, 0.00000000E+000
10, 2.00000000E+002, 0.00000000E+000, 5.00000000E+001
11, 2.00000000E+002, 5.00000000E+001, 0.00000000E+000
12, 2.00000000E+002, 5.00000000E+001, 5.00000000E+001
13, 0.00000000E+000, 0.00000000E+000, 5.00000000E+001
14, 0.00000000E+000, 0.00000000E+000, 0.00000000E+000
15, 0.00000000E+000, 5.00000000E+001, 0.00000000E+000
16, 0.00000000E+000, 5.00000000E+001, 5.00000000E+001
17, 8.74439316E+001, 0.00000000E+000, 1.00200000E+001
18, 8.74439316E+001, 0.00000000E+000, 2.00100000E+001
19, 8.74439316E+001, 1.03510816E+001, 0.00000000E+000
20, 8.74439316E+001, 2.07021632E+001, 0.00000000E+000
** ... 772 like lines cut
**
** Elements ++++++++++++++++++++++++++++++++++++++++++++++++
**
*Element, Type=C3D4, Elset=Compound-1
1, 397, 389, 614, 412
2, 287, 653, 654, 322
3, 767, 641, 502, 760
4, 555, 553, 716, 668
5, 201, 41, 234, 173
6, 177, 40, 281, 173
7, 279, 278, 170, 613
8, 463, 484, 773, 674
9, 325, 712, 324, 656
10, 641, 196, 633, 684
11, 706, 707, 608, 612
12, 196, 195, 633, 684
13, 103, 387, 104, 295
14, 173, 42, 791, 562
15, 516, 627, 476, 498
16, 49, 636, 50, 308
17, 36, 165, 782, 168
18, 401, 663, 589, 739
19, 721, 667, 720, 710
20, 484, 463, 773, 522
** ... 2956 like lines cut
**
** Node sets +++++++++++++++++++++++++++++++++++++++++++++++
**
*Nset, Nset=Internal_Selection-1_Concentrated_Force-1
9, 10, 43, 44, 45, 46
*Nset, Nset=Internal_Selection-1_Displacement_Rotation-1
13, 14, 15, 16, 86, 87, 88, 89, 98, 99, 100, 101, 121, 122, 123, 124, 
144, 145, 146, 147, 537, 538, 539, 540, 541, 542, 543, 544, 545, 546, 547, 548, 
549, 550, 551, 552, 553, 554, 555, 556, 557, 558
**
** Element sets ++++++++++++++++++++++++++++++++++++++++++++
**
*Elset, Elset=Black
171, 504, 509, 519, 526, 531, 548, 593, 637, 790, 900, 927, 958, 1151, 1157, 1237, 
1247, 1297, 1370, 1461, 1475, 1491, 1599, 1664, 1685, 1744, 1762, 1798, 1801, 1936, 2042, 2064, 
2217, 2273, 2344, 2394, 2485, 2603, 2837
*Elset, Elset=Internal_Selection-1_Solid_Section-1
Compound-1
**
** Surfaces ++++++++++++++++++++++++++++++++++++++++++++++++
**
**
** Physical constants ++++++++++++++++++++++++++++++++++++++
**
**
** Materials +++++++++++++++++++++++++++++++++++++++++++++++
**
*Material, Name=Material-1
*Elastic
210000, 0.3
**
** Sections ++++++++++++++++++++++++++++++++++++++++++++++++
**
*Solid section, Elset=Internal_Selection-1_Solid_Section-1, Material=Material-1
**
** Pre-tension sections ++++++++++++++++++++++++++++++++++++
**
**
** Constraints +++++++++++++++++++++++++++++++++++++++++++++
**
**
** Surface interactions ++++++++++++++++++++++++++++++++++++
**
**
** Contact pairs +++++++++++++++++++++++++++++++++++++++++++
**
**
** Amplitudes ++++++++++++++++++++++++++++++++++++++++++++++
**
**
** Initial conditions ++++++++++++++++++++++++++++++++++++++
**
**
** Steps +++++++++++++++++++++++++++++++++++++++++++++++++++
**
**
** Step-1 ++++++++++++++++++++++++++++++++++++++++++++++++++
**
*Step
*Static
**
** Output frequency ++++++++++++++++++++++++++++++++++++++++
**
*Output, Frequency=1
**
** Boundary conditions +++++++++++++++++++++++++++++++++++++
**
*Boundary, op=New
** Name: Displacement_Rotation-1
*Boundary, Fixed
Internal_Selection-1_Displacement_Rotation-1, 1, 1
Internal_Selection-1_Displacement_Rotation-1, 2, 2
Internal_Selection-1_Displacement_Rotation-1, 3, 3
**
** Loads +++++++++++++++++++++++++++++++++++++++++++++++++++
**
*Cload
9, 2, -100
**
** Defined fields ++++++++++++++++++++++++++++++++++++++++++
**
**
** History outputs +++++++++++++++++++++++++++++++++++++++++
**
**
** Field outputs +++++++++++++++++++++++++++++++++++++++++++
**
*Node file
RF, U
*El file
S, E, NOE
**
** End step ++++++++++++++++++++++++++++++++++++++++++++++++
**
*End step
